source: https://github.com/OpenFAST/r-test/tree/main/glue-codes/openfast/5MW_Baseline