source: https://github.com/OpenFAST/openfast